REMARK  4 active torsions:
REMARK  status: ('A' for Active; 'I' for Inactive)
REMARK    1  A    between atoms: C_4  and  C_10 
REMARK    2  A    between atoms: C_7  and  O_19 
REMARK    3  A    between atoms: C_9  and  O_20 
REMARK    4  A    between atoms: C_13  and  O_18 
ROOT
ATOM      1  C   UNL     1      -3.187   2.398 -44.693  1.00  0.00     0.074 A 
ATOM      2  C   UNL     1      -4.397   2.762 -45.264  1.00  0.00     0.094 A 
ATOM      3  C   UNL     1      -5.554   4.150 -46.777  1.00  0.00     0.159 C 
ATOM      4  C   UNL     1      -6.780   3.800 -46.308  1.00  0.00     0.048 C 
ATOM      5  C   UNL     1      -6.864   2.726 -45.301  1.00  0.00     0.200 C 
ATOM      6  C   UNL     1      -5.595   2.306 -44.687  1.00  0.00     0.082 A 
ATOM      7  C   UNL     1      -5.567   1.483 -43.554  1.00  0.00     0.085 A 
ATOM      8  C   UNL     1      -4.350   1.130 -43.002  1.00  0.00     0.074 A 
ATOM      9  C   UNL     1      -3.165   1.587 -43.570  1.00  0.00     0.071 A 
ATOM     10  O   UNL     1      -4.436   3.544 -46.362  1.00  0.00    -0.321 OA
ATOM     11  O   UNL     1      -7.927   2.211 -44.997  1.00  0.00    -0.286 OA
ENDROOT
BRANCH   4  12
ATOM     12  C   UNL     1      -8.004   4.482 -46.794  1.00  0.00    -0.020 A 
ATOM     13  C   UNL     1      -9.145   4.521 -45.996  1.00  0.00     0.015 A 
ATOM     14  C   UNL     1     -10.280   5.161 -46.448  1.00  0.00     0.037 A 
ATOM     15  C   UNL     1     -10.290   5.757 -47.701  1.00  0.00     0.065 A 
ATOM     16  C   UNL     1      -9.155   5.722 -48.498  1.00  0.00     0.037 A 
ATOM     17  C   UNL     1      -8.015   5.088 -48.049  1.00  0.00     0.015 A 
BRANCH  15  18
ATOM     18  O   UNL     1     -11.411   6.384 -48.146  1.00  0.00    -0.361 OA
ATOM     19  H   UNL     1     -12.163   5.924 -47.750  1.00  0.00     0.217 HD
ENDBRANCH  15  18
ENDBRANCH   4  12
BRANCH   7  20
ATOM     20  O   UNL     1      -6.724   1.037 -43.003  1.00  0.00    -0.360 OA
ATOM     21  H   UNL     1      -7.444   1.384 -43.546  1.00  0.00     0.217 HD
ENDBRANCH   7  20
BRANCH   9  22
ATOM     22  O   UNL     1      -1.977   1.238 -43.016  1.00  0.00    -0.361 OA
ATOM     23  H   UNL     1      -1.523   0.677 -43.660  1.00  0.00     0.217 HD
ENDBRANCH   9  22
TORSDOF 4
