QUE
  -OEChem-09092214103D

 32 34  0     0  0  0  0  0  0999 V2000
    0.6370   -0.0120    4.4810 C   0  0  0  0  0  0  0  0  0  0  0  0
   -0.5190    0.1190    3.7370 C   0  0  0  0  0  0  0  0  0  0  0  0
   -0.4510    0.0550    2.3390 C   0  0  0  0  0  0  0  0  0  0  0  0
    0.7840   -0.1420    1.6990 C   0  0  0  0  0  0  0  0  0  0  0  0
    1.9350   -0.2670    2.4630 C   0  0  0  0  0  0  0  0  0  0  0  0
    1.8590   -0.2080    3.8450 C   0  0  0  0  0  0  0  0  0  0  0  0
   -1.6580    0.1920    1.5090 C   0  0  0  0  0  0  0  0  0  0  0  0
   -1.4960    0.1140    0.1010 C   0  0  0  0  0  0  0  0  0  0  0  0
   -0.2520   -0.0790   -0.4190 C   0  0  0  0  0  0  0  0  0  0  0  0
   -0.1000   -0.1580   -1.8840 C   0  0  0  0  0  0  0  0  0  0  0  0
   -0.9560   -0.9690   -2.6340 C   0  0  0  0  0  0  0  0  0  0  0  0
   -0.8130   -1.0410   -4.0030 C   0  0  0  0  0  0  0  0  0  0  0  0
    0.1800   -0.3100   -4.6390 C   0  0  0  0  0  0  0  0  0  0  0  0
    1.0370    0.4990   -3.8970 C   0  0  0  0  0  0  0  0  0  0  0  0
    0.8960    0.5810   -2.5250 C   0  0  0  0  0  0  0  0  0  0  0  0
    0.8410   -0.2020    0.3520 O   0  0  0  0  0  0  0  0  0  0  0  0
   -2.7570    0.3650    2.0120 O   0  0  0  0  0  0  0  0  0  0  0  0
    2.0100    1.2140   -4.5250 O   0  0  0  0  0  0  0  0  0  0  0  0
    0.3180   -0.3860   -5.9890 O   0  0  0  0  0  0  0  0  0  0  0  0
   -2.5740    0.2320   -0.7200 O   0  0  0  0  0  0  0  0  0  0  0  0
    2.9890   -0.3360    4.5860 O   0  0  0  0  0  0  0  0  0  0  0  0
   -1.7110    0.3110    4.3550 O   0  0  0  0  0  0  0  0  0  0  0  0
    0.5930    0.0350    5.5590 H   0  0  0  0  0  0  0  0  0  0  0  0
    2.8900   -0.4140    1.9800 H   0  0  0  0  0  0  0  0  0  0  0  0
   -1.7300   -1.5390   -2.1410 H   0  0  0  0  0  0  0  0  0  0  0  0
   -1.4750   -1.6680   -4.5820 H   0  0  0  0  0  0  0  0  0  0  0  0
    1.5590    1.2100   -1.9490 H   0  0  0  0  0  0  0  0  0  0  0  0
    1.6240    2.0710   -4.7530 H   0  0  0  0  0  0  0  0  0  0  0  0
   -0.2390    0.3080   -6.3660 H   0  0  0  0  0  0  0  0  0  0  0  0
   -3.3460    0.3620   -0.1530 H   0  0  0  0  0  0  0  0  0  0  0  0
    3.0940   -1.2790    4.7750 H   0  0  0  0  0  0  0  0  0  0  0  0
   -1.8290    1.2660    4.4460 H   0  0  0  0  0  0  0  0  0  0  0  0
  1  2  2  0  0  0  0
  1  6  1  0  0  0  0
  1 23  1  0  0  0  0
  2  3  1  0  0  0  0
  2 22  1  0  0  0  0
  3  4  2  0  0  0  0
  3  7  1  0  0  0  0
  4  5  1  0  0  0  0
  4 16  1  0  0  0  0
  5  6  2  0  0  0  0
  5 24  1  0  0  0  0
  6 21  1  0  0  0  0
  7  8  1  0  0  0  0
  7 17  2  0  0  0  0
  8  9  2  0  0  0  0
  8 20  1  0  0  0  0
  9 10  1  0  0  0  0
  9 16  1  0  0  0  0
 10 11  2  0  0  0  0
 10 15  1  0  0  0  0
 11 12  1  0  0  0  0
 11 25  1  0  0  0  0
 12 13  2  0  0  0  0
 12 26  1  0  0  0  0
 13 14  1  0  0  0  0
 13 19  1  0  0  0  0
 14 15  2  0  0  0  0
 14 18  1  0  0  0  0
 15 27  1  0  0  0  0
 18 28  1  0  0  0  0
 19 29  1  0  0  0  0
 20 30  1  0  0  0  0
 21 31  1  0  0  0  0
 22 32  1  0  0  0  0
M  END
> <OPENEYE_ISO_SMILES>
c1cc(c(cc1c2c(c(=O)c3c(cc(cc3o2)O)O)O)O)O

> <OPENEYE_INCHI>
InChI=1S/C15H10O7/c16-7-4-10(19)12-11(5-7)22-15(14(21)13(12)20)6-1-2-8(17)9(18)3-6/h1-5,16-19,21H

> <OPENEYE_INCHIKEY>
REFJWTPEDVJJIY-UHFFFAOYSA-N

> <FORMULA>
C15H10O7

$$$$
