@<TRIPOS>MOLECULE
QUE
 32 34 0 0 0
SMALL
GASTEIGER

@<TRIPOS>ATOM
      1 C          26.7064  -17.2463    0.4246 C.ar    1  LIG1        0.0223
      2 C          24.6449  -17.0127    0.3541 C.ar    1  LIG1        0.1348
      3 C          24.7661  -17.1268    0.2216 C.ar    1  LIG1        0.1092
      4 C          26.9685  -17.4781    0.1610 C.ar    1  LIG1        0.1465
      5 C          29.0211  -17.7010    0.2334 C.ar    1  LIG1        0.0231
      6 C          28.8856  -17.5958    0.3643 C.ar    1  LIG1        0.1239
      7 C          22.6136  -16.8825    0.1430 C.ar    1  LIG1        0.2379
      8 C          22.9025  -17.0216    0.0096 C.ar    1  LIG1        0.2082
      9 C          25.1210  -17.3658   -0.0397 C.ar    1  LIG1        0.1807
     10 C          25.3921  -17.5067   -0.1785 C.ar    1  LIG1        0.0247
     11 C          23.8655  -18.9529   -0.2496 C.ar    1  LIG1       -0.0473
     12 C          24.1206  -19.0813   -0.3793 C.ar    1  LIG1       -0.0159
     13 C          25.8914  -17.7777   -0.4395 C.ar    1  LIG1        0.1583
     14 C          27.4197  -16.3350   -0.3692 C.ar    1  LIG1        0.1589
     15 C          27.1683  -16.1888   -0.2392 C.ar    1  LIG1       -0.0057
     16 O          27.0702  -17.5851    0.0334 O.2     1  LIG1       -0.4507
     17 O          20.6538  -16.5740    0.1906 O.2     1  LIG1       -0.2830
     18 O          29.1549  -15.0599   -0.4287 O.3     1  LIG1       -0.5033
     19 O          26.1375  -17.9133   -0.5675 O.3     1  LIG1       -0.5033
     20 O          20.9801  -16.8112   -0.0682 O.3     1  LIG1       -0.5007
     21 O          30.9008  -17.8241    0.4345 O.3     1  LIG1       -0.5065
     22 O          22.5191  -16.6703    0.4126 O.3     1  LIG1       -0.5058
     23 H          26.6279  -17.1625    0.5267 H       1  LIG1        0.0691
     24 H          30.7242  -17.9632    0.1876 H       1  LIG1        0.0691
     25 H          22.4852  -19.9694   -0.2029 H       1  LIG1        0.0626
     26 H          22.9400  -20.1995   -0.4341 H       1  LIG1        0.0655
     27 H          28.3506  -15.0671   -0.1847 H       1  LIG1        0.0662
     28 H          28.4665  -13.5316   -0.4503 H       1  LIG1        0.2923
     29 H          25.1442  -16.6756   -0.6032 H       1  LIG1        0.2923
     30 H          19.6034  -16.5793   -0.0145 H       1  LIG1        0.2924
     31 H          31.0880  -19.5058    0.4524 H       1  LIG1        0.2921
     32 H          22.3087  -14.9672    0.4213 H       1  LIG1        0.2922
@<TRIPOS>BOND
     1     1     2   ar
     2     1     6   ar
     3    14    18    1
     4     2     3   ar
     5     2    22    1
     6     3     4   ar
     7     3     7   ar
     8     4     5   ar
     9     4    16   ar
    10     5     6   ar
    11    14    15   ar
    12     6    21    1
    13     7     8   ar
    14     7    17    2
    15     8     9   ar
    16     8    20    1
    17     9    10    1
    18     9    16   ar
    19    10    11   ar
    20    10    15   ar
    21    11    12   ar
    22    13    19    1
    23    12    13   ar
    24    13    14   ar
    25    12    26    1
    26    11    25    1
    27     5    24    1
    28     1    23    1
    29    15    27    1
    30    18    28    1
    31    19    29    1
    32    20    30    1
    33    21    31    1
    34    22    32    1
